<?xml version="1.0" encoding="UTF-8"?>

<!-- generated on 01/16/20 14:27:15 by Eclipse SUMO GUI Version 1.4.0
-->

<configuration xmlns:xsi="http://www.w3.org/2001/XMLSchema-instance" xsi:noNamespaceSchemaLocation="http://sumo.dlr.de/xsd/sumoConfiguration.xsd">
  <input>
    <net-file value="matsim-network.net.xml"></net-file>
    <route-files value="matsim-plans.rou.xml"></route-files>
  </input>
</configuration>
